/*--------------------------------*- C++ -*----------------------------------*\
| =========                 |                                                 |
| \\      /  F ield         | OpenFOAM: The Open Source CFD Toolbox           |
|  \\    /   O peration     | Version:  v1912                                 |
|   \\  /    A nd           | Website:  www.openfoam.com                      |
|    \\/     M anipulation  |                                                 |
\*---------------------------------------------------------------------------*/
FoamFile
{
    version     2.0;
    format      ascii;
    class       volScalarField;
    object      nuTilda;
}
// * * * * * * * * * * * * * * * * * * * * * * * * * * * * * * * * * * * * * //

dimensions      [0 2 -1 0 0 0 0];

internalField   uniform 1.0e-05;

boundaryField
{

    freestream
    {
        type            inletOutlet;
        inletValue      uniform 1.0e-05;
        value           uniform 1.0e-05;
    }
      
    sym
    {
        type            symmetry;
    }

    wing
    {
        type            fixedValue;
        value           uniform 0;
    }

}

// ************************************************************************* //

